opendss_networks/LV13_58bus/Groundings.dss
new reactor.tx_busgrounding_B1080 phases=1 bus1=B1080.4 bus2=B1080.0 r=0.3 x=0.0
new reactor.loadbusgrounding_B1073 phases=1 bus1=B1073.4 bus2=B1073.0 r=10.0 x=0.0
new reactor.loadbusgrounding_B2720 phases=1 bus1=B2720.4 bus2=B2720.0 r=10.0 x=0.0
new reactor.loadbusgrounding_B816 phases=1 bus1=B816.4 bus2=B816.0 r=10.0 x=0.0
new reactor.loadbusgrounding_B251 phases=1 bus1=B251.4 bus2=B251.0 r=10.0 x=0.0
new reactor.loadbusgrounding_B1463 phases=1 bus1=B1463.4 bus2=B1463.0 r=10.0 x=0.0
new reactor.loadbusgrounding_B2943 phases=1 bus1=B2943.4 bus2=B2943.0 r=10.0 x=0.0
new reactor.loadbusgrounding_B1033 phases=1 bus1=B1033.4 bus2=B1033.0 r=10.0 x=0.0
new reactor.loadbusgrounding_B1207 phases=1 bus1=B1207.4 bus2=B1207.0 r=10.0 x=0.0
new reactor.loadbusgrounding_B250 phases=1 bus1=B250.4 bus2=B250.0 r=10.0 x=0.0
new reactor.loadbusgrounding_B760 phases=1 bus1=B760.4 bus2=B760.0 r=10.0 x=0.0
new reactor.loadbusgrounding_B1995 phases=1 bus1=B1995.4 bus2=B1995.0 r=10.0 x=0.0
